BEGIN OPTIONS
useUnknownWordSignatures 0
smoothInUnknownsThreshold 100
smartMutation false
useUnicodeType false
unknownSuffixSize 1
unknownPrefixSize 1
flexiTag false
useSignatureForKnownSmoothing false
wordClassesFile null
parserParams edu.stanford.nlp.parser.lexparser.ChineseTreebankParserParams
forceCNF false
doPCFG true
doDep true
freeDependencies false
directional true
genStop true
distance true
coarseDistance false
dcTags true
nPrune false

BEGIN STATE_INDEX
0=ROOT
1=IP^ROOT
2=.$$.
3=NP^IP
4=VP^IP-COMP
5=NP^NP=MODIFIERNP
6=NP^NP=MODIFIEDNP
7=NR
8=NN
9=@NP^NP=MODIFIEDNP : NN ...
10=CC
11=@NP^NP=MODIFIEDNP : NN CC ...
12=VV
13=FRAG^ROOT
14=@FRAG^ROOT : NN ...
15=@FRAG^ROOT : NN NR ...
16=NT
17=@FRAG^ROOT : NN NR NT ...
18=@FRAG^ROOT : NN NR NT NT ...
19=@FRAG^ROOT : NN NR NT NT NN ...
20=PU-PAREN
21=@FRAG^ROOT : NN NR NT NT NN PU-PAREN ...
22=@FRAG^ROOT : NN NR NT NT NN PU-PAREN ... PU-PAREN
23=@FRAG^ROOT : NN NR NT NT NN PU-PAREN ... NR PU-PAREN
24=@FRAG^ROOT : NN NR NT NT NN PU-PAREN ... PU-DOU NR PU-PAREN
25=PU-DOU
26=@IP^ROOT : NP^IP ...
27=VP^IP-CRD
28=PU-ENDSENT
29=@VP^IP-CRD : ... VP^VP-COMP
30=VP^VP-COMP
31=VP^VP-ADJT
32=PU-COMMA
33=LCP^VP-VPADJ
34=VP^VP-COMP-VPADJ
35=NP^LCP
36=LC
37=@VP^VP-COMP-VPADJ : ... NP^VP
38=NP^VP
39=VCD^VP
40=AS
41=CP^NP
42=@NP^VP : CP^NP ...
43=IP^CP=DEC
44=DEC
45=@NP^NP=MODIFIERNP : NN ...
46=@NP^NP=MODIFIERNP : NN PU-DOU ...
47=@NP^NP=MODIFIERNP : NN PU-DOU NN ...
48=@NP^NP=MODIFIERNP : NN PU-DOU NN PU-DOU ...
49=@NP^NP=MODIFIERNP : NN PU-DOU NN PU-DOU NN ...
50=@NP^NP=MODIFIERNP : NN PU-DOU NN PU-DOU NN PU-DOU ...
51=@NP^NP=MODIFIERNP : NN PU-DOU NN PU-DOU NN PU-DOU NN ...
52=@NP^NP=MODIFIERNP : NN PU-DOU NN PU-DOU NN PU-DOU NN PU-DOU ...
53=@NP^NP=MODIFIERNP : NN PU-DOU NN PU-DOU NN PU-DOU NN PU-DOU NN ...
54=@NP^NP=MODIFIERNP : NN PU-DOU NN PU-DOU NN PU-DOU NN PU-DOU NN PU-DOU ...
55=ETC
56=QP^NP
57=CD
58=CLP^QP
59=M
60=@VP^VP-COMP : ... NP^VP
61=DNP^NP
62=@NP^VP : DNP^NP ...
63=NP^DNP
64=DEG
65=ADJP^NP
66=JJ
67=@IP^ROOT : ... PU-ENDSENT
68=@IP^ROOT : ... IP^IP PU-ENDSENT
69=IP^IP
70=VC
71=@NP^VP : QP^NP ...
72=@NP^VP : QP^NP CP^NP ...
73=@NP^VP : NP^NP=MODIFIERNP ...
74=ADVP^IP^ADVP
75=@IP^IP : ADVP^IP^ADVP ...
76=AD~IP
77=VP^IP-ADJT
78=ADVP^VP-VPADJ^ADVP
79=AD~VP
80=NP^VP-VPADJ
81=@VP^IP-ADJT : NP^VP-VPADJ ...
82=@VP^IP-ADJT : NP^VP-VPADJ ADVP^VP-VPADJ^ADVP ...
83=NP^NP=MODIFIERNP=CONJ
84=@NP^NP=MODIFIEDNP : NP^NP=MODIFIERNP=CONJ ...
85=NP^NP=MODIFIEDNP=CONJ
86=PP^IP
87=@IP^ROOT : PP^IP ...
88=P
89=NP^PP
90=PN
91=@IP^ROOT : PP^IP PU-COMMA ...
92=@IP^ROOT : PP^IP PU-COMMA NP^IP ...
93=@VP^IP-CRD : ... CC VP^VP-COMP
94=DVP^VP-VPADJ
95=VP^DVP-COMP
96=DEV
97=VA
98=PU-QUOTE
99=@VP^IP-CRD : PU-QUOTE ...
100=@VP^IP-CRD : PU-QUOTE ... PU-QUOTE
101=@VP^IP-CRD : PU-QUOTE ... VP^VP-ADJT PU-QUOTE
102=PP^VP-VPADJ
103=@VP^VP-ADJT : PP^VP-VPADJ ...
104=LCP^PP
105=IP^LCP
106=@VP^IP-COMP : ... NP^VP
107=VP^VP-CRD
108=@VP^VP-CRD : ... VP^VP-COMP
109=@VP^VP-CRD : ... PU-COMMA VP^VP-COMP
110=@VP^VP-CRD : ... VP^VP-ADJT PU-COMMA VP^VP-COMP
111=@VP^VP-CRD : ... PU-COMMA VP^VP-ADJT PU-COMMA VP^VP-COMP
112=@VP^VP-CRD : ... VP^VP-COMP PU-COMMA VP^VP-ADJT PU-COMMA VP^VP-COMP
113=@NP^DNP : NP^NP=MODIFIERNP=CONJ ...
114=VP^VP-CRD-VPADJ
115=ADVP^DVP^ADVP
116=@ADVP^DVP^ADVP : ... AD~DVP
117=AD~DVP
118=@VP^VP-CRD-VPADJ : ... VP^VP-COMP
119=@VP^VP-COMP : ... IP^VP=VVP
120=IP^VP=VVP
121=VV-IP
122=DP^NP
123=NP^NP
124=DT
125=VP^VP-ADJT-VPADJ
126=SB
127=@NP^IP : CP^NP ...
128=@VP^IP-ADJT : LCP^VP-VPADJ ...
129=@NP^IP : CP^NP NP^NP=MODIFIERNP ...
130=OD
131=@NP^NP=MODIFIEDNP : NN NN ...
132=@NP^NP=MODIFIEDNP : NN NN NN ...
133=@NP^NP=MODIFIEDNP : NN NN NN NN ...
134=@IP^ROOT : NP^IP PU-COMMA ...
135=PP^VP
136=@VP^IP-CRD : PP^VP ...
137=ADVP^PP^ADVP
138=PP^PP
139=AD~PP
140=P-IP
141=IP^PP=VVP
142=@VP^VP-ADJT-VPADJ : ADVP^VP-VPADJ^ADVP ...
143=@VP^IP-CRD : PP^VP PU-COMMA ...
144=IP^VP
145=@VP^IP-CRD : PP^VP PU-COMMA IP^VP ...
146=@VP^VP-COMP : ... QP^VP
147=QP^VP
148=@NP^VP : CP^NP QP^NP ...
149=DP^VP-VPADJ
150=CLP^DP
151=VE
152=@NP^IP : NP^NP=MODIFIERNP=CONJ ...
153=@IP^ROOT : ... PU-COMMA IP^IP PU-ENDSENT
154=@IP^ROOT : ... IP^IP PU-COMMA IP^IP PU-ENDSENT
155=@IP^IP : PP^IP ...
156=@IP^IP : PP^IP PU-COMMA ...
157=@NP^PP : DNP^NP ...
158=@VP^IP-CRD : PP^VP PU-COMMA IP^VP PU-COMMA ...
159=ADVP^VP^ADVP
160=@NP^VP : NP^NP=MODIFIERNP=CONJ ...
161=@NP^NP=MODIFIERNP=CONJ : NN ...
162=@NP^NP=MODIFIERNP=CONJ : NN NN ...
163=@NP^NP=MODIFIERNP=CONJ : NN NN NN ...
164=@NP^VP : NP^NP=MODIFIERNP=CONJ PU-DOU ...
165=@NP^VP : NP^NP=MODIFIERNP=CONJ PU-DOU NP^NP=MODIFIERNP=CONJ ...
166=@NP^NP=MODIFIERNP=CONJ : NP^NP=MODIFIERNP ...
167=@NP^VP : NP^NP=MODIFIERNP=CONJ PU-DOU NP^NP=MODIFIERNP=CONJ PU-DOU ...
168=@NP^VP : NP^NP=MODIFIERNP=CONJ PU-DOU NP^NP=MODIFIERNP=CONJ PU-DOU NP^NP=MODIFIERNP=CONJ ...
169=IP^CP
170=@NP^VP : NP^NP=MODIFIERNP=CONJ PU-DOU NP^NP=MODIFIERNP=CONJ PU-DOU NP^NP=MODIFIERNP=CONJ PU-DOU ...
171=@NP^VP : NP^NP=MODIFIERNP=CONJ PU-DOU NP^NP=MODIFIERNP=CONJ PU-DOU NP^NP=MODIFIERNP=CONJ PU-DOU NP^NP=MODIFIERNP=CONJ ...
172=@NP^NP=MODIFIERNP : NN NN ...
173=@NP^NP=MODIFIERNP : NN NN CC ...
174=@NP^VP : NP^NP=MODIFIERNP=CONJ PU-DOU NP^NP=MODIFIERNP=CONJ PU-DOU NP^NP=MODIFIERNP=CONJ PU-DOU NP^NP=MODIFIERNP=CONJ PU-DOU ...
175=NP^NP=CONJ
176=@NP^NP=CONJ : NP^NP=MODIFIERNP ...
177=@NP^NP=MODIFIERNP : NN NN NN ...
178=@VP^VP-COMP-VPADJ : ... IP^VP=VVP
179=@VP^IP-CRD : ... VP^VP-ADJT
180=CP^IP
181=@IP^IP : CP^IP ...
182=ADVP^CP
183=CS
184=@IP^IP : ... IP^IP
185=@VP^VP-COMP-VPADJ : PU-QUOTE ...
186=@VP^VP-ADJT : ADVP^VP-VPADJ^ADVP ...
187=@VP^IP-ADJT : PP^VP-VPADJ ...
188=@IP^IP : CP^IP PU-COMMA ...
189=@IP^IP : CP^IP PU-COMMA ADVP^IP^ADVP ...
190=@IP^IP : CP^IP PU-COMMA ADVP^IP^ADVP NP^IP ...
191=@NP^IP : DP^NP ...
192=@VP^IP-COMP : ... IP^VP=VVP
193=@FRAG^ROOT : PU-PAREN ...

BEGIN WORD_INDEX
0=上海
1=浦东
2=开发
3=与
4=法制
5=建设
6=同步
7=.$.
8=新华社
9=二月
10=十日
11=电
12=（
13=记者
14=谢金虎
15=、
16=张持坚
17=）
18=近年
19=来
20=颁布
21=实行
22=了
23=涉及
24=经济
25=贸易
26=规划
27=科技
28=文教
29=等
30=领域
31=的
32=七十一
33=件
34=法规性
35=文件
36=，
37=确保
38=有序
39=进行
40=。
41=开放
42=是
43=一
44=项
45=振兴
46=现代化
47=金融
48=中心
49=跨世纪
50=工程
51=因此
52=大量
53=出现
54=以前
55=不
56=曾
57=遇到
58=过
59=新
60=情况
61=问题
62=对
63=此
64=简单
65=采取
66=“
67=干
68=段
69=时间
70=积累
71=经验
72=以后
73=再
74=制定
75=法规
76=条例
77=”
78=做法
79=而
80=借鉴
81=发达
82=国家
83=和
84=深圳
85=特区
86=教训
87=聘请
88=国内外
89=有关
90=专家
91=学者
92=积极
93=及时
94=地
95=推出
96=使
97=这些
98=活动
99=就
100=被
101=纳入
102=轨道
103=去年
104=初
105=新区
106=诞生
107=中国
108=第一
109=家
110=医疗
111=机构
112=药品
113=采购
114=服务
115=正
116=因为
117=开始
118=比较
119=规范
120=运转
121=至今
122=成交
123=一亿多
124=元
125=没有
126=发现
127=例
128=回扣
129=建筑
130=主要
131=年
132=有
133=数百
134=公司
135=四千余
136=个
137=工地
138=遍布
139=在
140=这
141=片
142=热土
143=上
144=为
145=行为
146=防止
147=无序
148=现象
149=管委会
150=根据
151=上海市
152=规定
153=结合
154=实际
155=出台
156=系列
157=市场
158=其中
159=包括
160=施工
161=招投标
162=管理
163=办法
164=拆迁
165=工作
166=若干
167=整治
168=违章
169=实施
170=通信
171=设施
172=及
173=管线
174=配套
175=意见
176=环境
177=暂行
178=基本
179=做到
180=每
181=环节
182=都
183=明确
184=又
185=具体
186=进
187=区
188=部门
189=先
190=送上
191=然后
192=专门
193=队伍
194=监督
195=检查
196=尽管
197=有些
198=粗
199=还
200=只
201=有待
202=实践
203=中
204=逐步
205=完善
206=但
207=种
208=紧跟
209=社会
210=受到
211=投资者
212=好
213=评
214=他们
215=认为
216=到
217=投资
218=办事
219=章法
220=讲
221=规矩
222=利益
223=能
224=得到
225=保障
226=完
227=UNK

BEGIN TAG_INDEX
0=NR
1=NN
2=CC
3=VV
4=.$$.
5=NT
6=PU-PAREN
7=PU-DOU
8=LC
9=AS
10=ETC
11=DEC
12=CD
13=M
14=PU-COMMA
15=DEG
16=JJ
17=PU-ENDSENT
18=VC
19=AD~IP
20=AD~VP
21=P
22=PN
23=VA
24=DEV
25=PU-QUOTE
26=AD~DVP
27=VV-IP
28=DT
29=SB
30=OD
31=AD~PP
32=P-IP
33=VE
34=CS

BEGIN LEXICON edu.stanford.nlp.parser.lexparser.ChineseUnknownWordModel
"NR" -> "上海" SEEN 4.0
"NR" -> ".*." SEEN 19.0
"NR" -> "浦东" SEEN 10.0
"NN" -> ".*." SEEN 128.0
"CC" -> "与" SEEN 1.0
"VV" -> "开发" SEEN 1.0
"CC" -> ".*." SEEN 8.0
"NN" -> "开发" SEEN 4.0
"VV" -> ".*." SEEN 48.0
".$$." -> ".$." SEEN 11.0
"NN" -> "建设" SEEN 5.0
".$$." -> ".*." SEEN 11.0
"NN" -> "法制" SEEN 3.0
"VV" -> "同步" SEEN 1.0
"NT" -> ".*." SEEN 5.0
"PU-PAREN" -> ".*." SEEN 4.0
"VV" -> "建设" SEEN 1.0
"PU-DOU" -> ".*." SEEN 15.0
"DEV" -> "的" SEEN 1.0
"PU-DOU" -> "、" SEEN 15.0
"LC" -> ".*." SEEN 5.0
"P" -> "等" SEEN 1.0
"NN" -> "新华社" SEEN 1.0
"AS" -> ".*." SEEN 7.0
"NN" -> "电" SEEN 1.0
"PU-PAREN" -> "（" SEEN 2.0
"ETC" -> ".*." SEEN 3.0
"DEC" -> ".*." SEEN 11.0
"NT" -> "二月" SEEN 1.0
"NN" -> "记者" SEEN 1.0
"CD" -> ".*." SEEN 10.0
"M" -> ".*." SEEN 14.0
"NR" -> "谢金虎" SEEN 1.0
"PU-COMMA" -> ".*." SEEN 30.0
"NT" -> "十日" SEEN 1.0
"DEG" -> ".*." SEEN 4.0
"NR" -> "张持坚" SEEN 1.0
"DEG" -> "的" SEEN 4.0
"JJ" -> ".*." SEEN 15.0
"PU-ENDSENT" -> ".*." SEEN 8.0
"VC" -> ".*." SEEN 6.0
"AD~IP" -> ".*." SEEN 2.0
"VV" -> "涉及" SEEN 1.0
"DEC" -> "的" SEEN 11.0
"AD~VP" -> ".*." SEEN 20.0
"P" -> ".*." SEEN 5.0
"VV" -> "实行" SEEN 1.0
"PN" -> ".*." SEEN 4.0
"PU-PAREN" -> "）" SEEN 2.0
"NT" -> "近年" SEEN 1.0
"VV" -> "颁布" SEEN 1.0
"ETC" -> "等" SEEN 3.0
"VA" -> ".*." SEEN 5.0
"NN" -> "贸易" SEEN 2.0
"DEV" -> ".*." SEEN 2.0
"NN" -> "经济" SEEN 5.0
"PU-QUOTE" -> ".*." SEEN 4.0
"NN" -> "科技" SEEN 1.0
"AD~DVP" -> ".*." SEEN 2.0
"LC" -> "来" SEEN 1.0
"NN" -> "规划" SEEN 1.0
"VV-IP" -> ".*." SEEN 5.0
"DT" -> ".*." SEEN 6.0
"NN" -> "文教" SEEN 1.0
"SB" -> ".*." SEEN 1.0
"OD" -> ".*." SEEN 1.0
"AS" -> "了" SEEN 6.0
"NN" -> "领域" SEEN 1.0
"AD~PP" -> ".*." SEEN 1.0
"AD~IP" -> "因此" SEEN 1.0
"AD~VP" -> "大量" SEEN 1.0
"P-IP" -> ".*." SEEN 2.0
"M" -> "项" SEEN 2.0
"JJ" -> "跨世纪" SEEN 1.0
"VE" -> ".*." SEEN 4.0
"NN" -> "文件" SEEN 5.0
"CS" -> ".*." SEEN 1.0
"NN" -> "法规性" SEEN 4.0
"AD~VP" -> "不" SEEN 2.0
"VV" -> "进行" SEEN 1.0
"VV" -> "确保" SEEN 1.0
"NN" -> "进行" SEEN 1.0
"CD" -> "一" SEEN 5.0
"NN" -> "开放" SEEN 1.0
"PN" -> "此" SEEN 1.0
"PU-COMMA" -> "，" SEEN 30.0
"JJ" -> "新" SEEN 2.0
"P" -> "对" SEEN 1.0
"CD" -> "七十一" SEEN 1.0
"M" -> "件" SEEN 1.0
"AD~VP" -> "曾" SEEN 1.0
"VV" -> "振兴" SEEN 1.0
"NN" -> "金融" SEEN 1.0
"NN" -> "现代化" SEEN 1.0
"NN" -> "中心" SEEN 2.0
"NN" -> "工程" SEEN 2.0
"NT" -> "以前" SEEN 1.0
"AS" -> "过" SEEN 1.0
"JJ" -> "有序" SEEN 1.0
"VV" -> "出现" SEEN 3.0
"VC" -> "是" SEEN 6.0
"PU-ENDSENT" -> "。" SEEN 8.0
"VV" -> "遇到" SEEN 1.0
"NN" -> "问题" SEEN 1.0
"NN" -> "情况" SEEN 1.0
"AD~VP" -> "一" SEEN 2.0
"VV" -> "干" SEEN 1.0
"LC" -> "以后" SEEN 1.0
"JJ" -> "发达" SEEN 1.0
"VV" -> "采取" SEEN 1.0
"NN" -> "时间" SEEN 1.0
"VV" -> "积累" SEEN 1.0
"NN" -> "经验" SEEN 2.0
"AD~DVP" -> "积极" SEEN 1.0
"DEV" -> "地" SEEN 1.0
"AD~DVP" -> "及时" SEEN 1.0
"M" -> "段" SEEN 1.0
"VV" -> "制定" SEEN 3.0
"JJ" -> "有关" SEEN 3.0
"AD~VP" -> "及时" SEEN 1.0
"NN" -> "法规" SEEN 1.0
"NN" -> "条例" SEEN 1.0
"CC" -> "而" SEEN 2.0
"NN" -> "做法" SEEN 2.0
"CC" -> "和" SEEN 4.0
"VV" -> "借鉴" SEEN 1.0
"NN" -> "国家" SEEN 2.0
"PU-QUOTE" -> "”" SEEN 2.0
"NR" -> "深圳" SEEN 1.0
"NN" -> "特区" SEEN 1.0
"VV" -> "聘请" SEEN 1.0
"P-IP" -> "因为" SEEN 1.0
"VA" -> "简单" SEEN 1.0
"NN" -> "教训" SEEN 1.0
"NN" -> "国内外" SEEN 2.0
"NN" -> "学者" SEEN 1.0
"PU-QUOTE" -> "“" SEEN 2.0
"NN" -> "专家" SEEN 1.0
"VV" -> "推出" SEEN 1.0
"AD~VP" -> "再" SEEN 1.0
"LC" -> "初" SEEN 1.0
"M" -> "家" SEEN 2.0
"VA" -> "规范" SEEN 1.0
"NT" -> "去年" SEEN 1.0
"AD~VP" -> "比较" SEEN 2.0
"NN" -> "活动" SEEN 3.0
"VV" -> "纳入" SEEN 1.0
"NN" -> "轨道" SEEN 1.0
"NN" -> "新区" SEEN 4.0
"VV" -> "诞生" SEEN 1.0
"NR" -> "中国" SEEN 1.0
"AD~PP" -> "正" SEEN 1.0
"NN" -> "机构" SEEN 1.0
"NN" -> "医疗" SEEN 1.0
"NN" -> "采购" SEEN 1.0
"NN" -> "药品" SEEN 2.0
"M" -> "元" SEEN 1.0
"OD" -> "第一" SEEN 1.0
"M" -> "例" SEEN 1.0
"NN" -> "服务" SEEN 1.0
"VV" -> "规范" SEEN 2.0
"VV" -> "开始" SEEN 1.0
"AD~VP" -> "就" SEEN 2.0
"CD" -> "一亿多" SEEN 1.0
"SB" -> "被" SEEN 1.0
"VV" -> "成交" SEEN 1.0
"VV" -> "至今" SEEN 1.0
"VV-IP" -> "使" SEEN 1.0
"VV" -> "运转" SEEN 1.0
"DT" -> "这些" SEEN 3.0
"VV" -> "发现" SEEN 1.0
"VV" -> "没有" SEEN 1.0
"NN" -> "建筑" SEEN 6.0
"M" -> "片" SEEN 1.0
"NN" -> "回扣" SEEN 1.0
"JJ" -> "无序" SEEN 1.0
"P" -> "根据" SEEN 1.0
"M" -> "个" SEEN 2.0
"NN" -> "公司" SEEN 2.0
"LC" -> "上" SEEN 1.0
"NN" -> "工地" SEEN 2.0
"CD" -> "数百" SEEN 1.0
"VV" -> "遍布" SEEN 1.0
"VV-IP" -> "防止" SEEN 1.0
"CD" -> "四千余" SEEN 1.0
"M" -> "年" SEEN 1.0
"NN" -> "热土" SEEN 1.0
"DT" -> "这" SEEN 2.0
"NN" -> "行为" SEEN 1.0
"M" -> "系列" SEEN 1.0
"JJ" -> "主要" SEEN 1.0
"NN" -> "管委会" SEEN 1.0
"NN" -> "现象" SEEN 1.0
"NR" -> "上海市" SEEN 1.0
"VV" -> "出台" SEEN 1.0
"NN" -> "规定" SEEN 4.0
"VV" -> "结合" SEEN 1.0
"NN" -> "实际" SEEN 1.0
"NN" -> "市场" SEEN 1.0
"VV" -> "包括" SEEN 1.0
"P" -> "在" SEEN 2.0
"NN" -> "其中" SEEN 1.0
"NN" -> "招投标" SEEN 1.0
"VA" -> "明确" SEEN 1.0
"NN" -> "施工" SEEN 2.0
"JJ" -> "暂行" SEEN 2.0
"NN" -> "办法" SEEN 3.0
"AD~VP" -> "都" SEEN 1.0
"NN" -> "管理" SEEN 2.0
"NN" -> "工作" SEEN 1.0
"VV" -> "整治" SEEN 1.0
"VE" -> "有" SEEN 4.0
"NN" -> "拆迁" SEEN 1.0
"AD~VP" -> "基本" SEEN 1.0
"NN" -> "实施" SEEN 1.0
"VV-IP" -> "做到" SEEN 1.0
"DT" -> "每" SEEN 1.0
"AD~VP" -> "先" SEEN 1.0
"CD" -> "若干" SEEN 1.0
"NN" -> "设施" SEEN 1.0
"NN" -> "通信" SEEN 1.0
"AD~VP" -> "然后" SEEN 1.0
"NN" -> "管线" SEEN 1.0
"AD~VP" -> "又" SEEN 1.0
"CC" -> "及" SEEN 1.0
"NN" -> "意见" SEEN 1.0
"VA" -> "具体" SEEN 1.0
"NN" -> "配套" SEEN 1.0
"P-IP" -> "为" SEEN 1.0
"NN" -> "环境" SEEN 1.0
"NN" -> "环节" SEEN 1.0
"JJ" -> "违章" SEEN 1.0
"VV" -> "进" SEEN 1.0
"NN" -> "区" SEEN 1.0
"NN" -> "部门" SEEN 1.0
"VV" -> "送上" SEEN 1.0
"NN" -> "队伍" SEEN 1.0
"PN" -> "他们" SEEN 1.0
"NN" -> "检查" SEEN 1.0
"M" -> "种" SEEN 1.0
"NN" -> "监督" SEEN 1.0
"LC" -> "中" SEEN 1.0
"JJ" -> "好" SEEN 1.0
"NN" -> "实践" SEEN 1.0
"VV-IP" -> "认为" SEEN 1.0
"VV" -> "完善" SEEN 1.0
"JJ" -> "专门" SEEN 1.0
"NN" -> "社会" SEEN 1.0
"VA" -> "粗" SEEN 1.0
"VV" -> "受到" SEEN 1.0
"VV-IP" -> "有待" SEEN 1.0
"NN" -> "投资者" SEEN 1.0
"PN" -> "有些" SEEN 2.0
"AD~VP" -> "还" SEEN 1.0
"VV" -> "紧跟" SEEN 1.0
"NN" -> "评" SEEN 1.0
"AD~VP" -> "逐步" SEEN 1.0
"VV" -> "投资" SEEN 1.0
"NN" -> "章法" SEEN 1.0
"VV" -> "到" SEEN 1.0
"NN" -> "办事" SEEN 1.0
"AD~VP" -> "只" SEEN 1.0
"NN" -> "规矩" SEEN 1.0
"VV" -> "能" SEEN 1.0
"AD~IP" -> "但" SEEN 1.0
"VV" -> "讲" SEEN 1.0
"NN" -> "利益" SEEN 1.0
"NN" -> "保障" SEEN 1.0
"VV" -> "完" SEEN 1.0
"VV" -> "得到" SEEN 1.0
"CS" -> "尽管" SEEN 1.0
".*." -> "完" SEEN 1.0
".*." -> "保障" SEEN 1.0
".*." -> "得到" SEEN 1.0
".*." -> "能" SEEN 1.0
".*." -> "利益" SEEN 1.0
".*." -> "规矩" SEEN 1.0
".*." -> "讲" SEEN 1.0
".*." -> "章法" SEEN 1.0
".*." -> "办事" SEEN 1.0
".*." -> "投资" SEEN 1.0
".*." -> "到" SEEN 1.0
".*." -> "认为" SEEN 1.0
".*." -> "他们" SEEN 1.0
".*." -> "评" SEEN 1.0
".*." -> "好" SEEN 1.0
".*." -> "投资者" SEEN 1.0
".*." -> "受到" SEEN 1.0
".*." -> "社会" SEEN 1.0
".*." -> "紧跟" SEEN 1.0
".*." -> "种" SEEN 1.0
".*." -> "但" SEEN 1.0
".*." -> "完善" SEEN 1.0
".*." -> "逐步" SEEN 1.0
".*." -> "中" SEEN 1.0
".*." -> "实践" SEEN 1.0
".*." -> "有待" SEEN 1.0
".*." -> "只" SEEN 1.0
".*." -> "还" SEEN 1.0
".*." -> "粗" SEEN 1.0
".*." -> "有些" SEEN 2.0
".*." -> "尽管" SEEN 1.0
".*." -> "检查" SEEN 1.0
".*." -> "监督" SEEN 1.0
".*." -> "队伍" SEEN 1.0
".*." -> "专门" SEEN 1.0
".*." -> "然后" SEEN 1.0
".*." -> "送上" SEEN 1.0
".*." -> "先" SEEN 1.0
".*." -> "部门" SEEN 1.0
".*." -> "区" SEEN 1.0
".*." -> "进" SEEN 1.0
".*." -> "具体" SEEN 1.0
".*." -> "又" SEEN 1.0
".*." -> "明确" SEEN 1.0
".*." -> "都" SEEN 1.0
".*." -> "环节" SEEN 1.0
".*." -> "每" SEEN 1.0
".*." -> "做到" SEEN 1.0
".*." -> "基本" SEEN 1.0
".*." -> "暂行" SEEN 2.0
".*." -> "环境" SEEN 1.0
".*." -> "意见" SEEN 1.0
".*." -> "配套" SEEN 1.0
".*." -> "管线" SEEN 1.0
".*." -> "及" SEEN 1.0
".*." -> "设施" SEEN 1.0
".*." -> "通信" SEEN 1.0
".*." -> "实施" SEEN 1.0
".*." -> "违章" SEEN 1.0
".*." -> "整治" SEEN 1.0
".*." -> "若干" SEEN 1.0
".*." -> "工作" SEEN 1.0
".*." -> "拆迁" SEEN 1.0
".*." -> "办法" SEEN 3.0
".*." -> "管理" SEEN 2.0
".*." -> "招投标" SEEN 1.0
".*." -> "施工" SEEN 2.0
".*." -> "包括" SEEN 1.0
".*." -> "其中" SEEN 1.0
".*." -> "市场" SEEN 1.0
".*." -> "系列" SEEN 1.0
".*." -> "出台" SEEN 1.0
".*." -> "实际" SEEN 1.0
".*." -> "结合" SEEN 1.0
".*." -> "规定" SEEN 4.0
".*." -> "上海市" SEEN 1.0
".*." -> "根据" SEEN 1.0
".*." -> "管委会" SEEN 1.0
".*." -> "现象" SEEN 1.0
".*." -> "无序" SEEN 1.0
".*." -> "防止" SEEN 1.0
".*." -> "行为" SEEN 1.0
".*." -> "为" SEEN 1.0
".*." -> "上" SEEN 1.0
".*." -> "热土" SEEN 1.0
".*." -> "片" SEEN 1.0
".*." -> "这" SEEN 2.0
".*." -> "在" SEEN 2.0
".*." -> "遍布" SEEN 1.0
".*." -> "工地" SEEN 2.0
".*." -> "个" SEEN 2.0
".*." -> "四千余" SEEN 1.0
".*." -> "公司" SEEN 2.0
".*." -> "数百" SEEN 1.0
".*." -> "有" SEEN 4.0
".*." -> "年" SEEN 1.0
".*." -> "主要" SEEN 1.0
".*." -> "建筑" SEEN 6.0
".*." -> "回扣" SEEN 1.0
".*." -> "例" SEEN 1.0
".*." -> "发现" SEEN 1.0
".*." -> "没有" SEEN 1.0
".*." -> "元" SEEN 1.0
".*." -> "一亿多" SEEN 1.0
".*." -> "成交" SEEN 1.0
".*." -> "至今" SEEN 1.0
".*." -> "运转" SEEN 1.0
".*." -> "规范" SEEN 3.0
".*." -> "比较" SEEN 2.0
".*." -> "开始" SEEN 1.0
".*." -> "因为" SEEN 1.0
".*." -> "正" SEEN 1.0
".*." -> "服务" SEEN 1.0
".*." -> "采购" SEEN 1.0
".*." -> "药品" SEEN 2.0
".*." -> "机构" SEEN 1.0
".*." -> "医疗" SEEN 1.0
".*." -> "家" SEEN 2.0
".*." -> "第一" SEEN 1.0
".*." -> "中国" SEEN 1.0
".*." -> "诞生" SEEN 1.0
".*." -> "新区" SEEN 4.0
".*." -> "初" SEEN 1.0
".*." -> "去年" SEEN 1.0
".*." -> "轨道" SEEN 1.0
".*." -> "纳入" SEEN 1.0
".*." -> "被" SEEN 1.0
".*." -> "就" SEEN 2.0
".*." -> "活动" SEEN 3.0
".*." -> "这些" SEEN 3.0
".*." -> "使" SEEN 1.0
".*." -> "推出" SEEN 1.0
".*." -> "地" SEEN 1.0
".*." -> "及时" SEEN 2.0
".*." -> "积极" SEEN 1.0
".*." -> "学者" SEEN 1.0
".*." -> "专家" SEEN 1.0
".*." -> "有关" SEEN 3.0
".*." -> "国内外" SEEN 2.0
".*." -> "聘请" SEEN 1.0
".*." -> "教训" SEEN 1.0
".*." -> "特区" SEEN 1.0
".*." -> "深圳" SEEN 1.0
".*." -> "和" SEEN 4.0
".*." -> "国家" SEEN 2.0
".*." -> "发达" SEEN 1.0
".*." -> "借鉴" SEEN 1.0
".*." -> "而" SEEN 2.0
".*." -> "做法" SEEN 2.0
".*." -> "”" SEEN 2.0
".*." -> "条例" SEEN 1.0
".*." -> "法规" SEEN 1.0
".*." -> "制定" SEEN 3.0
".*." -> "再" SEEN 1.0
".*." -> "以后" SEEN 1.0
".*." -> "经验" SEEN 2.0
".*." -> "积累" SEEN 1.0
".*." -> "时间" SEEN 1.0
".*." -> "段" SEEN 1.0
".*." -> "干" SEEN 1.0
".*." -> "“" SEEN 2.0
".*." -> "采取" SEEN 1.0
".*." -> "简单" SEEN 1.0
".*." -> "此" SEEN 1.0
".*." -> "对" SEEN 1.0
".*." -> "问题" SEEN 1.0
".*." -> "情况" SEEN 1.0
".*." -> "新" SEEN 2.0
".*." -> "过" SEEN 1.0
".*." -> "遇到" SEEN 1.0
".*." -> "曾" SEEN 1.0
".*." -> "不" SEEN 2.0
".*." -> "以前" SEEN 1.0
".*." -> "出现" SEEN 3.0
".*." -> "大量" SEEN 1.0
".*." -> "因此" SEEN 1.0
".*." -> "工程" SEEN 2.0
".*." -> "跨世纪" SEEN 1.0
".*." -> "中心" SEEN 2.0
".*." -> "金融" SEEN 1.0
".*." -> "现代化" SEEN 1.0
".*." -> "振兴" SEEN 1.0
".*." -> "项" SEEN 2.0
".*." -> "一" SEEN 7.0
".*." -> "是" SEEN 6.0
".*." -> "开放" SEEN 1.0
".*." -> "。" SEEN 8.0
".*." -> "进行" SEEN 2.0
".*." -> "有序" SEEN 1.0
".*." -> "确保" SEEN 1.0
".*." -> "，" SEEN 30.0
".*." -> "文件" SEEN 5.0
".*." -> "法规性" SEEN 4.0
".*." -> "件" SEEN 1.0
".*." -> "七十一" SEEN 1.0
".*." -> "的" SEEN 16.0
".*." -> "领域" SEEN 1.0
".*." -> "等" SEEN 4.0
".*." -> "文教" SEEN 1.0
".*." -> "科技" SEEN 1.0
".*." -> "规划" SEEN 1.0
".*." -> "贸易" SEEN 2.0
".*." -> "经济" SEEN 5.0
".*." -> "涉及" SEEN 1.0
".*." -> "了" SEEN 6.0
".*." -> "实行" SEEN 1.0
".*." -> "颁布" SEEN 1.0
".*." -> "来" SEEN 1.0
".*." -> "近年" SEEN 1.0
".*." -> "）" SEEN 2.0
".*." -> "张持坚" SEEN 1.0
".*." -> "、" SEEN 15.0
".*." -> "谢金虎" SEEN 1.0
".*." -> "记者" SEEN 1.0
".*." -> "（" SEEN 2.0
".*." -> "电" SEEN 1.0
".*." -> "十日" SEEN 1.0
".*." -> "二月" SEEN 1.0
".*." -> "新华社" SEEN 1.0
".*." -> ".$." SEEN 11.0
".*." -> "同步" SEEN 1.0
".*." -> "建设" SEEN 6.0
".*." -> "法制" SEEN 3.0
".*." -> "与" SEEN 1.0
".*." -> "开发" SEEN 5.0
".*." -> "浦东" SEEN 10.0
".*." -> "上海" SEEN 4.0
".*." -> ".*." SEEN 416.0
"NR" -> ".*." UNSEEN 2.0
"P-IP" -> ".*." UNSEEN 2.0
"NN" -> ".*." UNSEEN 46.0
"VE" -> ".*." UNSEEN 1.0
"CC" -> ".*." UNSEEN 1.0
"CS" -> ".*." UNSEEN 1.0
"VV" -> ".*." UNSEEN 23.0
"NT" -> ".*." UNSEEN 1.0
"LC" -> ".*." UNSEEN 3.0
"CD" -> ".*." UNSEEN 4.0
"M" -> ".*." UNSEEN 8.0
"JJ" -> ".*." UNSEEN 6.0
"AD~IP" -> ".*." UNSEEN 1.0
"AD~VP" -> ".*." UNSEEN 9.0
"P" -> ".*." UNSEEN 2.0
"PN" -> ".*." UNSEEN 2.0
"VA" -> ".*." UNSEEN 4.0
"VV-IP" -> ".*." UNSEEN 4.0
"DT" -> ".*." UNSEEN 2.0
"OD" -> ".*." UNSEEN 1.0
".*." -> ".*." UNSEEN 124.0
"AD~PP" -> ".*." UNSEEN 1.0
smooth[0] = 1.0
smooth[1] = 0.2

BEGIN UNARY_GRAMMAR
"NP^VP-VPADJ" -> "NT" -0.6931472
"IP^PP=VVP" -> "VP^IP-ADJT" -0.6931472
"CP^NP" -> "IP^CP" -2.4849067
"CLP^QP" -> "M" 0.0
"ADVP^VP-VPADJ^ADVP" -> "AD~VP" 0.0
"IP^IP" -> "VP^IP-COMP" -2.9957323
"QP^NP" -> "CD" -2.3025851
"ADVP^CP" -> "CS" 0.0
"NP^NP=MODIFIERNP" -> "NR" -0.9444616
"ADVP^PP^ADVP" -> "AD~PP" 0.0
"ADJP^NP" -> "JJ" 0.0
"NP^PP" -> "PN" -0.6931472
"VP^VP-COMP-VPADJ" -> "VA" -2.3978953
"NP^IP" -> "NR" -3.1354942
"ADVP^IP^ADVP" -> "AD~IP" 0.0
"DP^NP" -> "DT" -0.91629076
"VP^IP-COMP" -> "VV" -1.704748
"IP^IP" -> "VP^IP-ADJT" -1.609438
"NP^IP" -> "NN" -1.5260563
"NP^NP=MODIFIERNP" -> "NN" -2.1972246
"NP^NP=MODIFIEDNP" -> "NN" -0.36000273
"ADVP^VP^ADVP" -> "AD~VP" 0.0
"VP^VP-COMP" -> "VV" -3.0445225
"NP^NP=MODIFIEDNP=CONJ" -> "NR" -1.3862944
"IP^VP" -> "VP^IP-COMP" -1.3862944
"IP^PP=VVP" -> "VP^IP-CRD" -0.6931472
"NP^IP" -> "PN" -2.036882
"NP^NP=MODIFIERNP=CONJ" -> "NN" -2.0794415
"NP^VP" -> "NR" -2.944439
"IP^CP=DEC" -> "VP^IP-ADJT" -1.299283
"NP^IP" -> "CP^NP" -3.1354942
"NP^LCP" -> "NN" -1.3862944
"IP^LCP" -> "VP^IP-COMP" 0.0
"CLP^DP" -> "M" 0.0
"IP^CP" -> "VP^IP-COMP" -0.6931472
"VP^VP-COMP-VPADJ" -> "VV" -1.299283
"NP^VP" -> "NN" -1.8458267
"IP^CP=DEC" -> "VP^IP-COMP" -1.299283
"IP^CP=DEC" -> "VP^IP-CRD" -1.299283
"NP^LCP" -> "NT" -0.6931472
"NP^NP" -> "NN" -0.6931472
"IP^VP=VVP" -> "VP^IP-ADJT" -0.91629076
"IP^VP=VVP" -> "VP^IP-COMP" -1.609438
"VP^DVP-COMP" -> "VA" 0.0
"VP^VP-COMP" -> "VA" -3.0445225

BEGIN BINARY_GRAMMAR
"VP^VP-ADJT-VPADJ" -> "ADVP^VP-VPADJ^ADVP" "VP^VP-ADJT-VPADJ" -1.609438
"VP^VP-COMP" -> "VV" "VP^VP-COMP" -3.0445225
"IP^IP" -> "@IP^IP : ... IP^IP" "IP^IP" -2.3025851
"@NP^NP=MODIFIERNP : NN PU-DOU NN PU-DOU ..." -> "NN" "@NP^NP=MODIFIERNP : NN PU-DOU NN PU-DOU NN ..." 0.0
"@NP^NP=MODIFIERNP : NN PU-DOU ..." -> "NN" "@NP^NP=MODIFIERNP : NN PU-DOU NN ..." 0.0
"@FRAG^ROOT : NN NR NT NT ..." -> "NN" "@FRAG^ROOT : NN NR NT NT NN ..." 0.0
"@FRAG^ROOT : NN NR NT NT NN PU-PAREN ..." -> "@FRAG^ROOT : NN NR NT NT NN PU-PAREN ... PU-PAREN" "PU-PAREN" 0.0
"@NP^NP=MODIFIERNP : NN PU-DOU NN PU-DOU NN PU-DOU ..." -> "NN" "@NP^NP=MODIFIERNP : NN PU-DOU NN PU-DOU NN PU-DOU NN ..." 0.0
"@NP^NP=MODIFIERNP : NN PU-DOU NN PU-DOU NN PU-DOU NN PU-DOU ..." -> "NN" "@NP^NP=MODIFIERNP : NN PU-DOU NN PU-DOU NN PU-DOU NN PU-DOU NN ..." 0.0
"@NP^NP=MODIFIERNP : NN PU-DOU NN PU-DOU NN PU-DOU NN PU-DOU NN PU-DOU ..." -> "NN" "ETC" 0.0
"@VP^IP-CRD : PU-QUOTE ..." -> "@VP^IP-CRD : PU-QUOTE ... PU-QUOTE" "PU-QUOTE" 0.0
"@NP^NP=MODIFIEDNP : NN NN NN ..." -> "NN" "@NP^NP=MODIFIEDNP : NN NN NN NN ..." 0.0
"@NP^NP=MODIFIERNP=CONJ : NN NN ..." -> "NN" "@NP^NP=MODIFIERNP=CONJ : NN NN NN ..." 0.0
"@NP^NP=MODIFIERNP : NN NN ..." -> "CC" "@NP^NP=MODIFIERNP : NN NN CC ..." -0.6931472
"@IP^IP : CP^IP PU-COMMA ..." -> "ADVP^IP^ADVP" "@IP^IP : CP^IP PU-COMMA ADVP^IP^ADVP ..." 0.0
"@NP^NP=MODIFIEDNP : NN ..." -> "CC" "@NP^NP=MODIFIEDNP : NN CC ..." -0.6931472
"QP^NP" -> "OD" "CLP^QP" -2.3025851
"@NP^NP=MODIFIEDNP : NN CC ..." -> "NN" "NN" 0.0
"FRAG^ROOT" -> "NN" "@FRAG^ROOT : NN ..." -0.6931472
"@FRAG^ROOT : NN NR NT ..." -> "NT" "@FRAG^ROOT : NN NR NT NT ..." 0.0
"@VP^IP-ADJT : NP^VP-VPADJ ..." -> "ADVP^VP-VPADJ^ADVP" "@VP^IP-ADJT : NP^VP-VPADJ ADVP^VP-VPADJ^ADVP ..." 0.0
"DP^VP-VPADJ" -> "DT" "CLP^DP" 0.0
"@NP^NP=MODIFIERNP=CONJ : NN ..." -> "NN" "@NP^NP=MODIFIERNP=CONJ : NN NN ..." 0.0
"VP^VP-COMP-VPADJ" -> "VV" "NP^VP" -1.4816046
"VP^VP-COMP-VPADJ" -> "VC" "NP^VP" -3.0910425
"@FRAG^ROOT : NN NR NT NT NN ..." -> "PU-PAREN" "@FRAG^ROOT : NN NR NT NT NN PU-PAREN ..." 0.0
"@IP^ROOT : ... PU-ENDSENT" -> "@IP^ROOT : ... IP^IP PU-ENDSENT" "IP^IP" 0.0
"ADVP^DVP^ADVP" -> "@ADVP^DVP^ADVP : ... AD~DVP" "AD~DVP" 0.0
"@NP^NP=MODIFIEDNP : NN NN ..." -> "NN" "@NP^NP=MODIFIEDNP : NN NN NN ..." 0.0
"PP^PP" -> "P-IP" "IP^PP=VVP" 0.0
"@VP^IP-CRD : PP^VP ..." -> "PU-COMMA" "@VP^IP-CRD : PP^VP PU-COMMA ..." 0.0
"@IP^IP : PP^IP ..." -> "PU-COMMA" "@IP^IP : PP^IP PU-COMMA ..." 0.0
"@IP^IP : CP^IP ..." -> "PU-COMMA" "@IP^IP : CP^IP PU-COMMA ..." 0.0
"VP^VP-COMP-VPADJ" -> "VV" "AS" -3.0910425
"NP^IP" -> "NN" "NN" -2.442347
"@IP^ROOT : PP^IP ..." -> "PU-COMMA" "@IP^ROOT : PP^IP PU-COMMA ..." 0.0
"NP^NP=MODIFIERNP" -> "NN" "NN" -2.8903718
"@FRAG^ROOT : NN NR NT NT NN PU-PAREN ... NR PU-PAREN" -> "@FRAG^ROOT : NN NR NT NT NN PU-PAREN ... PU-DOU NR PU-PAREN" "PU-DOU" 0.0
"NP^NP=MODIFIEDNP" -> "NN" "NN" -1.4586151
"IP^IP" -> "ADVP^IP^ADVP" "@IP^IP : ADVP^IP^ADVP ..." -2.9957323
"PP^VP-VPADJ" -> "P" "LCP^PP" 0.0
"NP^NP=MODIFIEDNP" -> "NN" "@NP^NP=MODIFIEDNP : NN ..." -3.068053
"PP^IP" -> "P" "NP^PP" -0.6931472
"@VP^IP-CRD : PP^VP PU-COMMA IP^VP ..." -> "PU-COMMA" "@VP^IP-CRD : PP^VP PU-COMMA IP^VP PU-COMMA ..." -0.6931472
"@VP^VP-COMP : ... NP^VP" -> "VV" "AS" 0.0
"VP^IP-COMP" -> "VV" "VP^VP-COMP" -3.0910425
"VP^IP-ADJT" -> "NP^VP-VPADJ" "@VP^IP-ADJT : NP^VP-VPADJ ..." -2.5649493
"@NP^NP=MODIFIERNP : NN NN ..." -> "NN" "@NP^NP=MODIFIERNP : NN NN NN ..." -0.6931472
"CP^IP" -> "ADVP^CP" "IP^CP" 0.0
"@FRAG^ROOT : NN NR ..." -> "NT" "@FRAG^ROOT : NN NR NT ..." 0.0
"@VP^IP-CRD : PP^VP PU-COMMA ..." -> "IP^VP" "@VP^IP-CRD : PP^VP PU-COMMA IP^VP ..." 0.0
"@FRAG^ROOT : NN NR NT NT NN PU-PAREN ... PU-DOU NR PU-PAREN" -> "NN" "NR" 0.0
"NP^VP" -> "QP^NP" "NP^NP=MODIFIEDNP" -2.944439
"VP^IP-COMP" -> "VV" "NP^VP" -0.78845733
"VP^IP-COMP" -> "VC" "NP^VP" -1.9924302
"VP^IP-COMP" -> "@VP^IP-COMP : ... NP^VP" "NP^VP" -2.3978953
"@NP^DNP : NP^NP=MODIFIERNP=CONJ ..." -> "CC" "NP^NP=MODIFIEDNP=CONJ" 0.0
"@NP^NP=MODIFIERNP : NN ..." -> "CC" "NN" -1.609438
"NP^NP=MODIFIERNP" -> "NN" "@NP^NP=MODIFIERNP : NN ..." -1.2809339
"VCD^VP" -> "VV" "VV" 0.0
"@NP^VP : CP^NP ..." -> "QP^NP" "NP^NP=MODIFIEDNP" -0.6931472
"NP^VP" -> "NN" "NN" -1.8458267
"NP^DNP" -> "NN" "NN" -1.3862944
"VP^VP-COMP" -> "@VP^VP-COMP : ... NP^VP" "NP^VP" -2.3513753
"VP^VP-COMP" -> "VV" "NP^VP" -0.74193734
"@VP^IP-CRD : ... VP^VP-COMP" -> "VP^VP-COMP" "PU-COMMA" -0.6931472
"VP^VP-ADJT" -> "ADVP^VP-VPADJ^ADVP" "VP^VP-COMP-VPADJ" -1.2527629
"VP^VP-COMP-VPADJ" -> "VC" "VP^VP-ADJT" -3.0910425
"VP^VP-ADJT" -> "DVP^VP-VPADJ" "VP^VP-COMP-VPADJ" -1.9459101
"@VP^IP-COMP : ... NP^VP" -> "VV" "AS" 0.0
"@VP^IP-CRD : PU-QUOTE ... VP^VP-ADJT PU-QUOTE" -> "VP^VP-COMP" "PU-COMMA" 0.0
"@VP^VP-ADJT : PP^VP-VPADJ ..." -> "ADVP^VP-VPADJ^ADVP" "VP^VP-COMP-VPADJ" 0.0
"@VP^VP-CRD : ... VP^VP-COMP" -> "VP^VP-COMP" "PU-COMMA" -0.6931472
"@VP^VP-CRD : ... VP^VP-COMP PU-COMMA VP^VP-ADJT PU-COMMA VP^VP-COMP" -> "VP^VP-COMP" "PU-COMMA" 0.0
"NP^NP=MODIFIEDNP=CONJ" -> "QP^NP" "NP^NP=MODIFIEDNP" -1.3862944
"NP^NP=MODIFIERNP=CONJ" -> "QP^NP" "NP^NP=MODIFIEDNP" -2.0794415
"IP^ROOT" -> "PP^IP" "@IP^ROOT : PP^IP ..." -2.1972246
"NP^LCP" -> "DP^NP" "NP^NP" -1.3862944
"VP^VP-COMP-VPADJ" -> "@VP^VP-COMP-VPADJ : ... IP^VP=VVP" "IP^VP=VVP" -3.0910425
"NP^VP" -> "DP^NP" "NP^NP" -2.944439
"VP^VP-ADJT-VPADJ" -> "ADVP^VP-VPADJ^ADVP" "VP^VP-COMP-VPADJ" -0.91629076
"VP^VP-ADJT-VPADJ" -> "SB" "VP^VP-COMP-VPADJ" -1.609438
"NP^VP" -> "QP^NP" "@NP^VP : QP^NP ..." -2.944439
"VP^VP-CRD-VPADJ" -> "@VP^VP-CRD-VPADJ : ... VP^VP-COMP" "VP^VP-COMP" 0.0
"VP^VP-ADJT" -> "DVP^VP-VPADJ" "VP^VP-CRD-VPADJ" -1.9459101
"VP^IP-ADJT" -> "ADVP^VP-VPADJ^ADVP" "VP^VP-COMP-VPADJ" -0.7731899
"VP^IP-ADJT" -> "VP^VP-COMP-VPADJ" "VP^VP-COMP-VPADJ" -2.5649493
"@VP^IP-ADJT : NP^VP-VPADJ ADVP^VP-VPADJ^ADVP ..." -> "ADVP^VP-VPADJ^ADVP" "VP^VP-COMP-VPADJ" 0.0
"@VP^VP-CRD : ... PU-COMMA VP^VP-ADJT PU-COMMA VP^VP-COMP" -> "@VP^VP-CRD : ... VP^VP-COMP PU-COMMA VP^VP-ADJT PU-COMMA VP^VP-COMP" "VP^VP-COMP" 0.0
"@VP^VP-CRD : ... PU-COMMA VP^VP-COMP" -> "@VP^VP-CRD : ... VP^VP-ADJT PU-COMMA VP^VP-COMP" "VP^VP-ADJT" 0.0
"NP^NP" -> "NN" "NN" -0.6931472
"VP^VP-COMP" -> "VC" "VP^VP-CRD" -3.0445225
"VP^VP-CRD" -> "@VP^VP-CRD : ... VP^VP-COMP" "VP^VP-COMP" 0.0
"VP^IP-CRD" -> "PU-QUOTE" "@VP^IP-CRD : PU-QUOTE ..." -2.3025851
"VP^VP-ADJT" -> "PP^VP-VPADJ" "@VP^VP-ADJT : PP^VP-VPADJ ..." -1.9459101
"NP^IP" -> "DP^NP" "NP^NP" -3.1354942
"@VP^VP-CRD-VPADJ : ... VP^VP-COMP" -> "VP^VP-COMP" "CC" 0.0
"VP^IP-COMP" -> "@VP^IP-COMP : ... IP^VP=VVP" "IP^VP=VVP" -3.0910425
"@NP^NP=MODIFIERNP : NN ..." -> "NN" "@NP^NP=MODIFIERNP : NN NN ..." -0.91629076
"VP^IP-COMP" -> "VV" "PP^VP" -3.0910425
"@NP^IP : CP^NP NP^NP=MODIFIERNP ..." -> "QP^NP" "NP^NP=MODIFIEDNP" 0.0
"@NP^NP=MODIFIEDNP : NN ..." -> "NN" "@NP^NP=MODIFIEDNP : NN NN ..." -0.6931472
"@NP^NP=MODIFIEDNP : NN NN NN NN ..." -> "NN" "NN" 0.0
"VP^VP-COMP" -> "@VP^VP-COMP : ... QP^VP" "QP^VP" -3.0445225
"@VP^VP-ADJT : ADVP^VP-VPADJ^ADVP ..." -> "ADVP^VP-VPADJ^ADVP" "VP^VP-COMP-VPADJ" 0.0
"@VP^IP-ADJT : PP^VP-VPADJ ..." -> "ADVP^VP-VPADJ^ADVP" "VP^VP-COMP-VPADJ" 0.0
"VP^VP-COMP-VPADJ" -> "PU-QUOTE" "@VP^VP-COMP-VPADJ : PU-QUOTE ..." -3.0910425
"@IP^ROOT : NP^IP ..." -> "PU-COMMA" "@IP^ROOT : NP^IP PU-COMMA ..." -0.6931472
"@NP^NP=MODIFIERNP=CONJ : NP^NP=MODIFIERNP ..." -> "QP^NP" "NP^NP=MODIFIEDNP" 0.0
"@VP^IP-ADJT : LCP^VP-VPADJ ..." -> "NP^VP-VPADJ" "VP^VP-COMP-VPADJ" 0.0
"@NP^NP=MODIFIERNP : NN NN CC ..." -> "NN" "NN" 0.0
"VP^VP-ADJT" -> "ADVP^VP-VPADJ^ADVP" "@VP^VP-ADJT : ADVP^VP-VPADJ^ADVP ..." -1.9459101
"@NP^NP=MODIFIERNP=CONJ : NN NN NN ..." -> "NN" "NN" 0.0
"@VP^VP-ADJT-VPADJ : ADVP^VP-VPADJ^ADVP ..." -> "ADVP^VP-VPADJ^ADVP" "VP^VP-COMP-VPADJ" 0.0
"@VP^VP-COMP : ... QP^VP" -> "VV" "NP^VP" 0.0
"@NP^NP=MODIFIERNP : NN NN NN ..." -> "NN" "NN" 0.0
"@VP^IP-CRD : ... VP^VP-ADJT" -> "VP^VP-COMP" "CC" 0.0
"@IP^IP : CP^IP PU-COMMA ADVP^IP^ADVP NP^IP ..." -> "PU-COMMA" "VP^IP-COMP" 0.0
"NP^IP" -> "DP^NP" "@NP^IP : DP^NP ..." -3.1354942
"@NP^VP : CP^NP ..." -> "QP^NP" "@NP^VP : CP^NP QP^NP ..." -0.6931472
"FRAG^ROOT" -> "PU-PAREN" "@FRAG^ROOT : PU-PAREN ..." -0.6931472
"@FRAG^ROOT : PU-PAREN ..." -> "VV" "PU-PAREN" 0.0
"PP^IP" -> "P-IP" "IP^PP=VVP" -0.6931472
"@IP^ROOT : ... PU-COMMA IP^IP PU-ENDSENT" -> "@IP^ROOT : ... IP^IP PU-COMMA IP^IP PU-ENDSENT" "IP^IP" 0.0
"IP^IP" -> "PP^IP" "@IP^IP : PP^IP ..." -2.9957323
"PP^VP" -> "P" "NP^PP" -1.0986123
"DP^NP" -> "DT" "CLP^DP" -0.51082563
"PP^VP" -> "P" "LCP^PP" -1.0986123
"IP^IP" -> "CP^IP" "@IP^IP : CP^IP ..." -2.9957323
"NP^NP=MODIFIERNP=CONJ" -> "NN" "@NP^NP=MODIFIERNP=CONJ : NN ..." -2.0794415
"VP^VP-ADJT-VPADJ" -> "ADVP^VP-VPADJ^ADVP" "@VP^VP-ADJT-VPADJ : ADVP^VP-VPADJ^ADVP ..." -1.609438
"VP^IP-ADJT" -> "PP^VP-VPADJ" "@VP^IP-ADJT : PP^VP-VPADJ ..." -2.5649493
"@VP^IP-CRD : PP^VP PU-COMMA IP^VP ..." -> "PU-COMMA" "VP^VP-CRD" -0.6931472
"@FRAG^ROOT : NN ..." -> "NR" "@FRAG^ROOT : NN NR ..." 0.0